#p opt am1

Terrible obabel --gen3d from SMILES guess struct

0 1
C         -7.59806        0.13711       -1.84855
N         -7.76049        1.12655       -0.90127
C         -6.33549        0.11559       -2.59735
C         -5.30652       -0.71415       -2.34273
N         -4.83048       -0.84439       -1.08046
C         -4.51734       -2.10377       -0.97624
C         -4.31399       -2.78344       -2.25627
C         -4.82621       -1.85849       -3.08600
C         -4.68508       -2.82722        0.31158
C         -5.00253       -1.94614        1.29193
N         -4.46624       -0.66365        1.50958
C         -5.47834        0.22622        1.88296
C         -6.64468       -0.62680        2.12359
C         -6.36277       -1.90277        1.80860
C         -5.39779        1.58196        1.83729
C         -8.82713       -0.50871       -1.87541
C         -9.76269        0.27287       -1.10298
C         -9.09146        1.31980       -0.54351
C         -9.38414        2.50812        0.22314
C         -8.63088        2.82817        1.30597
C         -8.15314        4.18553        1.70697
C         -6.63263        3.91885        1.55803
C         -6.61704        2.41872        1.83507
N         -7.80052        1.88912        1.83455
H         -7.01085        1.70012       -0.55102
H         -5.92345        1.11594       -2.39868
H         -3.80053       -3.70334       -2.46088
H         -4.79588       -1.89686       -4.16138
H         -5.24160       -3.75416        0.18827
H         -3.95739       -0.33588        0.68543
H         -7.63830       -0.28821        2.37374
H         -7.10851       -2.67984        1.72532
H         -4.46847        2.05701        1.54320
H         -9.08446       -1.38063       -2.46591
H        -10.81906        0.08109       -1.01066
H        -10.02306        3.25283       -0.24161
H         -8.40703        4.39634        2.75600
H         -8.49978        5.01320        1.08185
H         -6.01528        4.49421        2.24458
H         -6.30576        4.09799        0.52277

