#p zindo punch=mo nosymm 

From chlorin_am1_out_b3lyp_opt.log B3LYP structure

0 1
C -7.388202 0.744840 -2.696663
N -7.519253 1.993577 -2.078531
C -6.127028 0.155521 -2.593994
C -5.732681 -1.167011 -2.286707
N -4.729351 -1.219976 -1.359795
C -4.805423 -2.438033 -0.764270
C -5.751365 -3.277099 -1.492651
C -6.357657 -2.467471 -2.416345
C -4.450958 -2.622042 0.598516
C -4.292963 -1.538087 1.479777
N -4.201191 -0.246431 1.006056
C -4.805687 0.635198 1.874001
C -5.068384 -0.102489 3.075191
C -4.720860 -1.422803 2.845731
C -5.210618 1.862512 1.303620
C -8.720166 0.323923 -3.000367
C -9.595785 1.253886 -2.472588
C -8.824049 2.234303 -1.759728
C -9.197137 2.962927 -0.596991
C -8.302289 3.184885 0.452212
C -8.661065 3.247968 1.933639
C -7.449457 2.503908 2.565814
C -6.433155 2.518477 1.433427
N -6.963159 3.027182 0.299385
H -6.818584 2.377049 -1.432691
H -5.352780 0.864984 -2.305665
H -5.981475 -4.313527 -1.274555
H -7.159163 -2.729614 -3.095578
H -4.609136 -3.602343 1.038743
H -4.246368 -0.151687 -0.022753
H -5.471292 0.313189 3.989080
H -4.827159 -2.249350 3.537003
H -4.738236 2.060649 0.343135
H -8.980511 -0.577377 -3.539328
H -10.677231 1.212079 -2.494478
H -10.259932 3.044921 -0.391886
H -9.624129 2.784985 2.166198
H -8.698908 4.288183 2.281987
H -7.703351 1.467352 2.827668
H -7.068910 2.981737 3.473889

